8001180
C	7.52735	-1.19222	-20.04376
C	6.79052	-3.45994	-20.04376
C	5.38898	-5.38899	-20.04376
C	3.45994	-6.79052	-20.04376
C	1.19221	-7.52735	-20.04376
C	-1.19221	-7.52735	-20.04376
C	-3.45994	-6.79052	-20.04376
C	-5.38898	-5.38899	-20.04376
C	-6.79052	-3.45994	-20.04376
C	-7.52735	-1.19222	-20.04376
C	-7.52735	1.19221	-20.04376
C	-6.79052	3.45994	-20.04376
C	-5.38898	5.38898	-20.04376
C	-3.45994	6.79051	-20.04376
C	-1.19221	7.52734	-20.04376
C	1.19221	7.52734	-20.04376
C	3.45994	6.79051	-20.04376
C	5.38898	5.38898	-20.04376
C	6.79052	3.45994	-20.04376
C	7.52735	1.19221	-20.04376
C	7.62117	-0.0	-19.35259
C	7.24817	-2.35507	-19.35259
C	6.16566	-4.47962	-19.35259
C	4.47961	-6.16566	-19.35259
C	2.35507	-7.24817	-19.35259
C	0.0	-7.62118	-19.35259
C	-2.35507	-7.24817	-19.35259
C	-4.47961	-6.16566	-19.35259
C	-6.16566	-4.47962	-19.35259
C	-7.24817	-2.35507	-19.35259
C	-7.62117	-0.0	-19.35259
C	-7.24817	2.35507	-19.35259
C	-6.16566	4.47961	-19.35259
C	-4.47961	6.16566	-19.35259
C	-2.35507	7.24817	-19.35259
C	-0.0	7.62117	-19.35259
C	2.35507	7.24817	-19.35259
C	4.47961	6.16566	-19.35259
C	6.16566	4.47961	-19.35259
C	7.24817	2.35507	-19.35259
C	7.62117	-0.0	-17.97027
C	7.24817	-2.35507	-17.97027
C	6.16566	-4.47962	-17.97027
C	4.47961	-6.16566	-17.97027
C	2.35507	-7.24817	-17.97027
C	0.0	-7.62118	-17.97027
C	-2.35507	-7.24817	-17.97027
C	-4.47961	-6.16566	-17.97027
C	-6.16566	-4.47962	-17.97027
C	-7.24817	-2.35507	-17.97027
C	-7.62117	-0.0	-17.97027
C	-7.24817	2.35507	-17.97027
C	-6.16566	4.47961	-17.97027
C	-4.47961	6.16566	-17.97027
C	-2.35507	7.24817	-17.97027
C	-0.0	7.62117	-17.97027
C	2.35507	7.24817	-17.97027
C	4.47961	6.16566	-17.97027
C	6.16566	4.47961	-17.97027
C	7.24817	2.35507	-17.97027
C	7.52735	-1.19222	-17.2791
C	6.79052	-3.45994	-17.2791
C	5.38898	-5.38899	-17.2791
C	3.45994	-6.79052	-17.2791
C	1.19221	-7.52735	-17.2791
C	-1.19221	-7.52735	-17.2791
C	-3.45994	-6.79052	-17.2791
C	-5.38898	-5.38899	-17.2791
C	-6.79052	-3.45994	-17.2791
C	-7.52735	-1.19222	-17.2791
C	-7.52735	1.19221	-17.2791
C	-6.79052	3.45994	-17.2791
C	-5.38898	5.38898	-17.2791
C	-3.45994	6.79051	-17.2791
C	-1.19221	7.52734	-17.2791
C	1.19221	7.52734	-17.2791
C	3.45994	6.79051	-17.2791
C	5.38898	5.38898	-17.2791
C	6.79052	3.45994	-17.2791
C	7.52735	1.19221	-17.2791
C	7.52735	-1.19222	-15.89677
C	6.79052	-3.45994	-15.89677
C	5.38898	-5.38899	-15.89677
C	3.45994	-6.79052	-15.89677
C	1.19221	-7.52735	-15.89677
C	-1.19221	-7.52735	-15.89677
C	-3.45994	-6.79052	-15.89677
C	-5.38898	-5.38899	-15.89677
C	-6.79052	-3.45994	-15.89677
C	-7.52735	-1.19222	-15.89677
C	-7.52735	1.19221	-15.89677
C	-6.79052	3.45994	-15.89677
C	-5.38898	5.38898	-15.89677
C	-3.45994	6.79051	-15.89677
C	-1.19221	7.52734	-15.89677
C	1.19221	7.52734	-15.89677
C	3.45994	6.79051	-15.89677
C	5.38898	5.38898	-15.89677
C	6.79052	3.45994	-15.89677
C	7.52735	1.19221	-15.89677
C	7.62117	-0.0	-15.20561
C	7.24817	-2.35507	-15.20561
C	6.16566	-4.47962	-15.20561
C	4.47961	-6.16566	-15.20561
C	2.35507	-7.24817	-15.20561
C	0.0	-7.62118	-15.20561
C	-2.35507	-7.24817	-15.20561
C	-4.47961	-6.16566	-15.20561
C	-6.16566	-4.47962	-15.20561
C	-7.24817	-2.35507	-15.20561
C	-7.62117	-0.0	-15.20561
C	-7.24817	2.35507	-15.20561
C	-6.16566	4.47961	-15.20561
C	-4.47961	6.16566	-15.20561
C	-2.35507	7.24817	-15.20561
C	-0.0	7.62117	-15.20561
C	2.35507	7.24817	-15.20561
C	4.47961	6.16566	-15.20561
C	6.16566	4.47961	-15.20561
C	7.24817	2.35507	-15.20561
C	7.62117	-0.0	-13.82328
C	7.24817	-2.35507	-13.82328
C	6.16566	-4.47961	-13.82328
C	4.47961	-6.16566	-13.82328
C	2.35507	-7.24817	-13.82328
C	0.0	-7.62118	-13.82328
C	-2.35507	-7.24817	-13.82328
C	-4.47961	-6.16566	-13.82328
C	-6.16566	-4.47961	-13.82328
C	-7.24817	-2.35507	-13.82328
C	-7.62117	-0.0	-13.82328
C	-7.24817	2.35507	-13.82328
C	-6.16566	4.47961	-13.82328
C	-4.47961	6.16566	-13.82328
C	-2.35507	7.24817	-13.82328
C	-0.0	7.62117	-13.82328
C	2.35507	7.24817	-13.82328
C	4.47961	6.16566	-13.82328
C	6.16566	4.47961	-13.82328
C	7.24817	2.35507	-13.82328
C	7.52735	-1.19222	-13.13212
C	6.79052	-3.45994	-13.13212
C	5.38898	-5.38899	-13.13212
C	3.45994	-6.79052	-13.13212
C	1.19221	-7.52735	-13.13212
C	-1.19221	-7.52735	-13.13212
C	-3.45994	-6.79052	-13.13212
C	-5.38898	-5.38899	-13.13212
C	-6.79052	-3.45994	-13.13212
C	-7.52735	-1.19222	-13.13212
C	-7.52735	1.19221	-13.13212
C	-6.79052	3.45994	-13.13212
C	-5.38898	5.38898	-13.13212
C	-3.45994	6.79052	-13.13212
C	-1.19221	7.52734	-13.13212
C	1.19221	7.52734	-13.13212
C	3.45994	6.79052	-13.13212
C	5.38898	5.38898	-13.13212
C	6.79052	3.45994	-13.13212
C	7.52735	1.19221	-13.13212
C	7.52735	-1.19222	-11.74979
C	6.79052	-3.45994	-11.74979
C	5.38898	-5.38898	-11.74979
C	3.45994	-6.79052	-11.74979
C	1.19221	-7.52735	-11.74979
C	-1.19221	-7.52735	-11.74979
C	-3.45994	-6.79052	-11.74979
C	-5.38898	-5.38898	-11.74979
C	-6.79052	-3.45994	-11.74979
C	-7.52735	-1.19222	-11.74979
C	-7.52735	1.19221	-11.74979
C	-6.79052	3.45994	-11.74979
C	-5.38898	5.38898	-11.74979
C	-3.45994	6.79052	-11.74979
C	-1.19221	7.52734	-11.74979
C	1.19221	7.52734	-11.74979
C	3.45994	6.79052	-11.74979
C	5.38898	5.38898	-11.74979
C	6.79052	3.45994	-11.74979
C	7.52735	1.19221	-11.74979
C	7.62117	-0.0	-11.05862
C	7.24817	-2.35507	-11.05862
C	6.16566	-4.47961	-11.05862
C	4.47961	-6.16566	-11.05862
C	2.35507	-7.24817	-11.05862
C	0.0	-7.62118	-11.05862
C	-2.35507	-7.24817	-11.05862
C	-4.47961	-6.16566	-11.05862
C	-6.16566	-4.47961	-11.05862
C	-7.24817	-2.35507	-11.05862
C	-7.62117	-0.0	-11.05862
C	-7.24817	2.35507	-11.05863
C	-6.16566	4.47961	-11.05863
C	-4.47961	6.16566	-11.05863
C	-2.35507	7.24817	-11.05863
C	-0.0	7.62117	-11.05863
C	2.35507	7.24817	-11.05863
C	4.47961	6.16566	-11.05863
C	6.16566	4.47961	-11.05863
C	7.24817	2.35507	-11.05863
C	7.62117	-0.0	-9.6763
C	7.24817	-2.35507	-9.6763
C	6.16566	-4.47961	-9.6763
C	4.47961	-6.16566	-9.6763
C	2.35507	-7.24817	-9.6763
C	0.0	-7.62118	-9.6763
C	-2.35507	-7.24817	-9.6763
C	-4.47961	-6.16566	-9.6763
C	-6.16566	-4.47961	-9.6763
C	-7.24817	-2.35507	-9.6763
C	-7.62117	-0.0	-9.6763
C	-7.24817	2.35507	-9.6763
C	-6.16566	4.47961	-9.6763
C	-4.47961	6.16566	-9.6763
C	-2.35507	7.24817	-9.6763
C	-0.0	7.62117	-9.6763
C	2.35507	7.24817	-9.6763
C	4.47961	6.16566	-9.6763
C	6.16566	4.47961	-9.6763
C	7.24817	2.35507	-9.6763
C	7.52735	-1.19222	-8.98513
C	6.79052	-3.45994	-8.98513
C	5.38898	-5.38898	-8.98513
C	3.45994	-6.79052	-8.98513
C	1.19221	-7.52735	-8.98513
C	-1.19221	-7.52735	-8.98513
C	-3.45994	-6.79052	-8.98513
C	-5.38898	-5.38898	-8.98513
C	-6.79052	-3.45994	-8.98513
C	-7.52735	-1.19222	-8.98513
C	-7.52735	1.19221	-8.98513
C	-6.79052	3.45994	-8.98513
C	-5.38898	5.38898	-8.98513
C	-3.45994	6.79052	-8.98513
C	-1.19221	7.52734	-8.98513
C	1.19221	7.52734	-8.98513
C	3.45994	6.79052	-8.98513
C	5.38898	5.38898	-8.98513
C	6.79052	3.45994	-8.98513
C	7.52735	1.19221	-8.98513
C	7.52735	-1.19221	-7.6028
C	6.79052	-3.45994	-7.6028
C	5.38898	-5.38898	-7.6028
C	3.45994	-6.79052	-7.6028
C	1.19221	-7.52735	-7.6028
C	-1.19221	-7.52735	-7.6028
C	-3.45994	-6.79052	-7.6028
C	-5.38898	-5.38898	-7.6028
C	-6.79052	-3.45994	-7.6028
C	-7.52735	-1.19221	-7.6028
C	-7.52735	1.19221	-7.6028
C	-6.79052	3.45994	-7.6028
C	-5.38898	5.38898	-7.60281
C	-3.45994	6.79052	-7.60281
C	-1.19221	7.52734	-7.60281
C	1.19221	7.52734	-7.60281
C	3.45994	6.79052	-7.60281
C	5.38898	5.38898	-7.60281
C	6.79052	3.45994	-7.6028
C	7.52735	1.19221	-7.6028
C	7.62117	-0.0	-6.91164
C	7.24817	-2.35507	-6.91164
C	6.16566	-4.47961	-6.91164
C	4.47961	-6.16566	-6.91164
C	2.35507	-7.24817	-6.91164
C	0.0	-7.62117	-6.91164
C	-2.35507	-7.24817	-6.91164
C	-4.47961	-6.16566	-6.91164
C	-6.16566	-4.47961	-6.91164
C	-7.24817	-2.35507	-6.91164
C	-7.62117	-0.0	-6.91164
C	-7.24817	2.35507	-6.91164
C	-6.16566	4.47961	-6.91164
C	-4.47961	6.16566	-6.91164
C	-2.35507	7.24817	-6.91164
C	-0.0	7.62117	-6.91164
C	2.35507	7.24817	-6.91164
C	4.47961	6.16566	-6.91164
C	6.16566	4.47961	-6.91164
C	7.24817	2.35507	-6.91164
C	7.62117	-0.0	-5.52931
C	7.24817	-2.35507	-5.52931
C	6.16566	-4.47961	-5.52931
C	4.47961	-6.16566	-5.52931
C	2.35507	-7.24817	-5.52931
C	0.0	-7.62117	-5.52931
C	-2.35507	-7.24817	-5.52931
C	-4.47961	-6.16566	-5.52931
C	-6.16566	-4.47961	-5.52931
C	-7.24817	-2.35507	-5.52931
C	-7.62117	-0.0	-5.52931
C	-7.24817	2.35507	-5.52931
C	-6.16566	4.47961	-5.52931
C	-4.47961	6.16566	-5.52931
C	-2.35507	7.24817	-5.52931
C	-0.0	7.62117	-5.52931
C	2.35507	7.24817	-5.52931
C	4.47961	6.16566	-5.52931
C	6.16566	4.47961	-5.52931
C	7.24817	2.35507	-5.52931
C	7.52735	-1.19221	-4.83815
C	6.79052	-3.45994	-4.83815
C	5.38898	-5.38898	-4.83815
C	3.45994	-6.79052	-4.83815
C	1.19221	-7.52735	-4.83815
C	-1.19221	-7.52735	-4.83815
C	-3.45994	-6.79052	-4.83815
C	-5.38898	-5.38898	-4.83815
C	-6.79052	-3.45994	-4.83815
C	-7.52735	-1.19221	-4.83815
C	-7.52735	1.19221	-4.83815
C	-6.79052	3.45994	-4.83815
C	-5.38898	5.38898	-4.83815
C	-3.45994	6.79052	-4.83815
C	-1.19221	7.52734	-4.83815
C	1.19221	7.52734	-4.83815
C	3.45994	6.79052	-4.83815
C	5.38898	5.38898	-4.83815
C	6.79052	3.45994	-4.83815
C	7.52735	1.19221	-4.83815
C	7.52735	-1.19221	-3.45582
C	6.79052	-3.45994	-3.45582
C	5.38898	-5.38898	-3.45582
C	3.45994	-6.79052	-3.45582
C	1.19221	-7.52735	-3.45582
C	-1.19221	-7.52735	-3.45582
C	-3.45994	-6.79052	-3.45582
C	-5.38898	-5.38898	-3.45582
C	-6.79052	-3.45994	-3.45582
C	-7.52735	-1.19221	-3.45582
C	-7.52735	1.19221	-3.45582
C	-6.79052	3.45994	-3.45582
C	-5.38898	5.38898	-3.45582
C	-3.45994	6.79052	-3.45582
C	-1.19221	7.52734	-3.45582
C	1.19221	7.52734	-3.45582
C	3.45994	6.79052	-3.45582
C	5.38898	5.38898	-3.45582
C	6.79052	3.45994	-3.45582
C	7.52735	1.19221	-3.45582
C	7.62117	-0.0	-2.76466
C	7.24817	-2.35507	-2.76466
C	6.16566	-4.47961	-2.76466
C	4.47961	-6.16566	-2.76466
C	2.35507	-7.24817	-2.76466
C	0.0	-7.62117	-2.76466
C	-2.35507	-7.24817	-2.76466
C	-4.47961	-6.16566	-2.76466
C	-6.16566	-4.47961	-2.76466
C	-7.24817	-2.35507	-2.76466
C	-7.62117	-0.0	-2.76466
C	-7.24817	2.35507	-2.76466
C	-6.16566	4.47961	-2.76466
C	-4.47961	6.16566	-2.76466
C	-2.35507	7.24817	-2.76466
C	-0.0	7.62117	-2.76466
C	2.35507	7.24817	-2.76466
C	4.47961	6.16566	-2.76466
C	6.16566	4.47961	-2.76466
C	7.24817	2.35507	-2.76466
C	7.62117	-0.0	-1.38233
C	7.24817	-2.35507	-1.38233
C	6.16566	-4.47961	-1.38233
C	4.47961	-6.16566	-1.38233
C	2.35507	-7.24817	-1.38233
C	0.0	-7.62117	-1.38233
C	-2.35507	-7.24817	-1.38233
C	-4.47961	-6.16566	-1.38233
C	-6.16566	-4.47961	-1.38233
C	-7.24817	-2.35507	-1.38233
C	-7.62117	-0.0	-1.38233
C	-7.24817	2.35507	-1.38233
C	-6.16566	4.47961	-1.38233
C	-4.47961	6.16566	-1.38233
C	-2.35507	7.24817	-1.38233
C	-0.0	7.62117	-1.38233
C	2.35507	7.24817	-1.38233
C	4.47961	6.16566	-1.38233
C	6.16566	4.47961	-1.38233
C	7.24817	2.35507	-1.38233
C	7.52735	-1.19221	-0.69116
C	6.79052	-3.45994	-0.69116
C	5.38898	-5.38898	-0.69116
C	3.45994	-6.79052	-0.69116
C	1.19221	-7.52735	-0.69116
C	-1.19221	-7.52735	-0.69116
C	-3.45994	-6.79052	-0.69116
C	-5.38898	-5.38898	-0.69116
C	-6.79052	-3.45994	-0.69116
C	-7.52735	-1.19221	-0.69116
C	-7.52735	1.19221	-0.69116
C	-6.79052	3.45994	-0.69116
C	-5.38898	5.38898	-0.69116
C	-3.45994	6.79052	-0.69116
C	-1.19221	7.52735	-0.69116
C	1.19221	7.52735	-0.69116
C	3.45994	6.79052	-0.69116
C	5.38898	5.38898	-0.69116
C	6.79052	3.45994	-0.69116
C	7.52735	1.19221	-0.69116
C	7.52735	-1.19221	0.69116
C	6.79052	-3.45994	0.69116
C	5.38898	-5.38898	0.69116
C	3.45994	-6.79052	0.69116
C	1.19221	-7.52735	0.69116
C	-1.19221	-7.52735	0.69116
C	-3.45994	-6.79052	0.69116
C	-5.38898	-5.38898	0.69116
C	-6.79052	-3.45994	0.69116
C	-7.52735	-1.19221	0.69116
C	-7.52735	1.19221	0.69116
C	-6.79052	3.45994	0.69116
C	-5.38898	5.38898	0.69116
C	-3.45994	6.79052	0.69116
C	-1.19221	7.52735	0.69116
C	1.19221	7.52735	0.69116
C	3.45994	6.79052	0.69116
C	5.38898	5.38898	0.69116
C	6.79052	3.45994	0.69116
C	7.52735	1.19221	0.69116
C	7.62117	0.0	1.38233
C	7.24817	-2.35507	1.38233
C	6.16566	-4.47961	1.38233
C	4.47961	-6.16566	1.38233
C	2.35507	-7.24817	1.38233
C	0.0	-7.62117	1.38233
C	-2.35507	-7.24817	1.38233
C	-4.47961	-6.16566	1.38233
C	-6.16566	-4.47961	1.38233
C	-7.24817	-2.35507	1.38233
C	-7.62117	0.0	1.38233
C	-7.24817	2.35507	1.38233
C	-6.16566	4.47961	1.38233
C	-4.47961	6.16566	1.38233
C	-2.35507	7.24817	1.38233
C	-0.0	7.62117	1.38233
C	2.35507	7.24817	1.38233
C	4.47961	6.16566	1.38233
C	6.16566	4.47961	1.38233
C	7.24817	2.35507	1.38233
C	7.62117	0.0	2.76466
C	7.24817	-2.35507	2.76466
C	6.16566	-4.47961	2.76466
C	4.47961	-6.16566	2.76466
C	2.35507	-7.24817	2.76466
C	0.0	-7.62117	2.76466
C	-2.35507	-7.24817	2.76466
C	-4.47961	-6.16566	2.76466
C	-6.16566	-4.47961	2.76466
C	-7.24817	-2.35507	2.76466
C	-7.62117	0.0	2.76466
C	-7.24817	2.35507	2.76466
C	-6.16566	4.47961	2.76466
C	-4.47961	6.16566	2.76466
C	-2.35507	7.24817	2.76466
C	-0.0	7.62117	2.76466
C	2.35507	7.24817	2.76466
C	4.47961	6.16566	2.76466
C	6.16566	4.47961	2.76466
C	7.24817	2.35507	2.76466
C	7.52735	-1.19221	3.45582
C	6.79052	-3.45994	3.45582
C	5.38898	-5.38898	3.45582
C	3.45994	-6.79052	3.45582
C	1.19221	-7.52734	3.45582
C	-1.19221	-7.52734	3.45582
C	-3.45994	-6.79052	3.45582
C	-5.38898	-5.38898	3.45582
C	-6.79052	-3.45994	3.45582
C	-7.52735	-1.19221	3.45582
C	-7.52735	1.19221	3.45582
C	-6.79052	3.45994	3.45582
C	-5.38898	5.38898	3.45582
C	-3.45994	6.79052	3.45582
C	-1.19221	7.52735	3.45582
C	1.19221	7.52735	3.45582
C	3.45994	6.79052	3.45582
C	5.38898	5.38898	3.45582
C	6.79052	3.45994	3.45582
C	7.52735	1.19221	3.45582
C	7.52735	-1.19221	4.83815
C	6.79052	-3.45994	4.83815
C	5.38898	-5.38898	4.83815
C	3.45994	-6.79052	4.83815
C	1.19221	-7.52734	4.83815
C	-1.19221	-7.52734	4.83815
C	-3.45994	-6.79052	4.83815
C	-5.38898	-5.38898	4.83815
C	-6.79052	-3.45994	4.83815
C	-7.52735	-1.19221	4.83815
C	-7.52735	1.19221	4.83815
C	-6.79052	3.45994	4.83815
C	-5.38898	5.38898	4.83815
C	-3.45994	6.79052	4.83815
C	-1.19221	7.52735	4.83815
C	1.19221	7.52735	4.83815
C	3.45994	6.79052	4.83815
C	5.38898	5.38898	4.83815
C	6.79052	3.45994	4.83815
C	7.52735	1.19221	4.83815
C	7.62117	0.0	5.52931
C	7.24817	-2.35507	5.52931
C	6.16566	-4.47961	5.52931
C	4.47961	-6.16566	5.52931
C	2.35507	-7.24817	5.52931
C	0.0	-7.62117	5.52931
C	-2.35507	-7.24817	5.52931
C	-4.47961	-6.16566	5.52931
C	-6.16566	-4.47961	5.52931
C	-7.24817	-2.35507	5.52931
C	-7.62117	0.0	5.52931
C	-7.24817	2.35507	5.52931
C	-6.16566	4.47961	5.52931
C	-4.47961	6.16566	5.52931
C	-2.35507	7.24817	5.52931
C	-0.0	7.62117	5.52931
C	2.35507	7.24817	5.52931
C	4.47961	6.16566	5.52931
C	6.16566	4.47961	5.52931
C	7.24817	2.35507	5.52931
C	7.62117	0.0	6.91164
C	7.24817	-2.35507	6.91164
C	6.16566	-4.47961	6.91164
C	4.47961	-6.16566	6.91164
C	2.35507	-7.24817	6.91164
C	0.0	-7.62117	6.91164
C	-2.35507	-7.24817	6.91164
C	-4.47961	-6.16566	6.91164
C	-6.16566	-4.47961	6.91164
C	-7.24817	-2.35507	6.91164
C	-7.62117	0.0	6.91164
C	-7.24817	2.35507	6.91164
C	-6.16566	4.47961	6.91164
C	-4.47961	6.16566	6.91164
C	-2.35507	7.24817	6.91164
C	-0.0	7.62117	6.91164
C	2.35507	7.24817	6.91164
C	4.47961	6.16566	6.91164
C	6.16566	4.47961	6.91164
C	7.24817	2.35507	6.91164
C	7.52735	-1.19221	7.6028
C	6.79052	-3.45994	7.6028
C	5.38898	-5.38898	7.60281
C	3.45994	-6.79052	7.60281
C	1.19221	-7.52734	7.60281
C	-1.19221	-7.52734	7.60281
C	-3.45994	-6.79052	7.60281
C	-5.38898	-5.38898	7.60281
C	-6.79052	-3.45994	7.6028
C	-7.52735	-1.19221	7.6028
C	-7.52735	1.19221	7.6028
C	-6.79052	3.45994	7.6028
C	-5.38898	5.38898	7.6028
C	-3.45994	6.79052	7.6028
C	-1.19221	7.52735	7.6028
C	1.19221	7.52735	7.6028
C	3.45994	6.79052	7.6028
C	5.38898	5.38898	7.6028
C	6.79052	3.45994	7.6028
C	7.52735	1.19221	7.6028
C	7.52735	-1.19221	8.98513
C	6.79052	-3.45994	8.98513
C	5.38898	-5.38898	8.98513
C	3.45994	-6.79052	8.98513
C	1.19221	-7.52734	8.98513
C	-1.19221	-7.52734	8.98513
C	-3.45994	-6.79052	8.98513
C	-5.38898	-5.38898	8.98513
C	-6.79052	-3.45994	8.98513
C	-7.52735	-1.19221	8.98513
C	-7.52735	1.19222	8.98513
C	-6.79052	3.45994	8.98513
C	-5.38898	5.38898	8.98513
C	-3.45994	6.79052	8.98513
C	-1.19221	7.52735	8.98513
C	1.19221	7.52735	8.98513
C	3.45994	6.79052	8.98513
C	5.38898	5.38898	8.98513
C	6.79052	3.45994	8.98513
C	7.52735	1.19222	8.98513
C	7.62117	0.0	9.6763
C	7.24817	-2.35507	9.6763
C	6.16566	-4.47961	9.6763
C	4.47961	-6.16566	9.6763
C	2.35507	-7.24817	9.6763
C	0.0	-7.62117	9.6763
C	-2.35507	-7.24817	9.6763
C	-4.47961	-6.16566	9.6763
C	-6.16566	-4.47961	9.6763
C	-7.24817	-2.35507	9.6763
C	-7.62117	0.0	9.6763
C	-7.24817	2.35507	9.6763
C	-6.16566	4.47961	9.6763
C	-4.47961	6.16566	9.6763
C	-2.35507	7.24817	9.6763
C	-0.0	7.62118	9.6763
C	2.35507	7.24817	9.6763
C	4.47961	6.16566	9.6763
C	6.16566	4.47961	9.6763
C	7.24817	2.35507	9.6763
C	7.62117	0.0	11.05862
C	7.24817	-2.35507	11.05863
C	6.16566	-4.47961	11.05863
C	4.47961	-6.16566	11.05863
C	2.35507	-7.24817	11.05863
C	0.0	-7.62117	11.05863
C	-2.35507	-7.24817	11.05863
C	-4.47961	-6.16566	11.05863
C	-6.16566	-4.47961	11.05863
C	-7.24817	-2.35507	11.05863
C	-7.62117	0.0	11.05862
C	-7.24817	2.35507	11.05862
C	-6.16566	4.47961	11.05862
C	-4.47961	6.16566	11.05862
C	-2.35507	7.24817	11.05862
C	-0.0	7.62118	11.05862
C	2.35507	7.24817	11.05862
C	4.47961	6.16566	11.05862
C	6.16566	4.47961	11.05862
C	7.24817	2.35507	11.05862
C	7.52735	-1.19221	11.74979
C	6.79052	-3.45994	11.74979
C	5.38898	-5.38898	11.74979
C	3.45994	-6.79052	11.74979
C	1.19221	-7.52734	11.74979
C	-1.19221	-7.52734	11.74979
C	-3.45994	-6.79052	11.74979
C	-5.38898	-5.38898	11.74979
C	-6.79052	-3.45994	11.74979
C	-7.52735	-1.19221	11.74979
C	-7.52735	1.19222	11.74979
C	-6.79052	3.45994	11.74979
C	-5.38898	5.38898	11.74979
C	-3.45994	6.79052	11.74979
C	-1.19221	7.52735	11.74979
C	1.19221	7.52735	11.74979
C	3.45994	6.79052	11.74979
C	5.38898	5.38898	11.74979
C	6.79052	3.45994	11.74979
C	7.52735	1.19222	11.74979
C	7.52735	-1.19221	13.13212
C	6.79052	-3.45994	13.13212
C	5.38898	-5.38898	13.13212
C	3.45994	-6.79052	13.13212
C	1.19221	-7.52734	13.13212
C	-1.19221	-7.52734	13.13212
C	-3.45994	-6.79052	13.13212
C	-5.38898	-5.38898	13.13212
C	-6.79052	-3.45994	13.13212
C	-7.52735	-1.19221	13.13212
C	-7.52735	1.19222	13.13212
C	-6.79052	3.45994	13.13212
C	-5.38898	5.38899	13.13212
C	-3.45994	6.79052	13.13212
C	-1.19221	7.52735	13.13212
C	1.19221	7.52735	13.13212
C	3.45994	6.79052	13.13212
C	5.38898	5.38899	13.13212
C	6.79052	3.45994	13.13212
C	7.52735	1.19222	13.13212
C	7.62117	0.0	13.82328
C	7.24817	-2.35507	13.82328
C	6.16566	-4.47961	13.82328
C	4.47961	-6.16566	13.82328
C	2.35507	-7.24817	13.82328
C	0.0	-7.62117	13.82328
C	-2.35507	-7.24817	13.82328
C	-4.47961	-6.16566	13.82328
C	-6.16566	-4.47961	13.82328
C	-7.24817	-2.35507	13.82328
C	-7.62117	0.0	13.82328
C	-7.24817	2.35507	13.82328
C	-6.16566	4.47961	13.82328
C	-4.47961	6.16566	13.82328
C	-2.35507	7.24817	13.82328
C	-0.0	7.62118	13.82328
C	2.35507	7.24817	13.82328
C	4.47961	6.16566	13.82328
C	6.16566	4.47961	13.82328
C	7.24817	2.35507	13.82328
C	7.62117	0.0	15.20561
C	7.24817	-2.35507	15.20561
C	6.16566	-4.47961	15.20561
C	4.47961	-6.16566	15.20561
C	2.35507	-7.24817	15.20561
C	0.0	-7.62117	15.20561
C	-2.35507	-7.24817	15.20561
C	-4.47961	-6.16566	15.20561
C	-6.16566	-4.47961	15.20561
C	-7.24817	-2.35507	15.20561
C	-7.62117	0.0	15.20561
C	-7.24817	2.35507	15.20561
C	-6.16566	4.47962	15.20561
C	-4.47961	6.16566	15.20561
C	-2.35507	7.24817	15.20561
C	-0.0	7.62118	15.20561
C	2.35507	7.24817	15.20561
C	4.47961	6.16566	15.20561
C	6.16566	4.47962	15.20561
C	7.24817	2.35507	15.20561
C	7.52735	-1.19221	15.89677
C	6.79052	-3.45994	15.89677
C	5.38898	-5.38898	15.89677
C	3.45994	-6.79051	15.89677
C	1.19221	-7.52734	15.89677
C	-1.19221	-7.52734	15.89677
C	-3.45994	-6.79051	15.89677
C	-5.38898	-5.38898	15.89677
C	-6.79052	-3.45994	15.89677
C	-7.52735	-1.19221	15.89677
C	-7.52735	1.19222	15.89677
C	-6.79052	3.45994	15.89677
C	-5.38898	5.38899	15.89677
C	-3.45994	6.79052	15.89677
C	-1.19221	7.52735	15.89677
C	1.19221	7.52735	15.89677
C	3.45994	6.79052	15.89677
C	5.38898	5.38899	15.89677
C	6.79052	3.45994	15.89677
C	7.52735	1.19222	15.89677
C	7.52735	-1.19221	17.2791
C	6.79052	-3.45994	17.2791
C	5.38898	-5.38898	17.2791
C	3.45994	-6.79051	17.2791
C	1.19221	-7.52734	17.2791
C	-1.19221	-7.52734	17.2791
C	-3.45994	-6.79051	17.2791
C	-5.38898	-5.38898	17.2791
C	-6.79052	-3.45994	17.2791
C	-7.52735	-1.19221	17.2791
C	-7.52735	1.19222	17.2791
C	-6.79052	3.45994	17.2791
C	-5.38898	5.38899	17.2791
C	-3.45994	6.79052	17.2791
C	-1.19221	7.52735	17.2791
C	1.19221	7.52735	17.2791
C	3.45994	6.79052	17.2791
C	5.38898	5.38899	17.2791
C	6.79052	3.45994	17.2791
C	7.52735	1.19222	17.2791
C	7.62117	0.0	17.97027
C	7.24817	-2.35507	17.97027
C	6.16566	-4.47961	17.97027
C	4.47961	-6.16566	17.97027
C	2.35507	-7.24817	17.97027
C	0.0	-7.62117	17.97027
C	-2.35507	-7.24817	17.97027
C	-4.47961	-6.16566	17.97027
C	-6.16566	-4.47961	17.97027
C	-7.24817	-2.35507	17.97027
C	-7.62117	0.0	17.97027
C	-7.24817	2.35507	17.97027
C	-6.16566	4.47962	17.97027
C	-4.47961	6.16566	17.97027
C	-2.35507	7.24817	17.97027
C	-0.0	7.62118	17.97027
C	2.35507	7.24817	17.97027
C	4.47961	6.16566	17.97027
C	6.16566	4.47962	17.97027
C	7.24817	2.35507	17.97027
C	7.62117	0.0	19.35259
C	7.24817	-2.35507	19.35259
C	6.16566	-4.47961	19.35259
C	4.47961	-6.16566	19.35259
C	2.35507	-7.24817	19.35259
C	0.0	-7.62117	19.35259
C	-2.35507	-7.24817	19.35259
C	-4.47961	-6.16566	19.35259
C	-6.16566	-4.47961	19.35259
C	-7.24817	-2.35507	19.35259
C	-7.62117	0.0	19.35259
C	-7.24817	2.35507	19.35259
C	-6.16566	4.47962	19.35259
C	-4.47961	6.16566	19.35259
C	-2.35507	7.24817	19.35259
C	-0.0	7.62118	19.35259
C	2.35507	7.24817	19.35259
C	4.47961	6.16566	19.35259
C	6.16566	4.47962	19.35259
C	7.24817	2.35507	19.35259
C	7.52735	-1.19221	20.04376
C	6.79052	-3.45994	20.04376
C	5.38898	-5.38898	20.04376
C	3.45994	-6.79051	20.04376
C	1.19221	-7.52734	20.04376
C	-1.19221	-7.52734	20.04376
C	-3.45994	-6.79051	20.04376
C	-5.38898	-5.38898	20.04376
C	-6.79052	-3.45994	20.04376
C	-7.52735	-1.19221	20.04376
C	-7.52735	1.19222	20.04376
C	-6.79052	3.45994	20.04376
C	-5.38898	5.38899	20.04376
C	-3.45994	6.79052	20.04376
C	-1.19221	7.52735	20.04376
C	1.19221	7.52735	20.04376
C	3.45994	6.79052	20.04376
C	5.38898	5.38899	20.04376
C	6.79052	3.45994	20.04376
C	7.52735	1.19222	20.04376
